myETL/UCT_Source/20221102_1230_FO3_UA0.uct
##C 2007.05.01
UCTE Export
D1_20221102_UA-D1_20221102

----- NODE BLOCK -----
_________1_________2_________3_________4_________5_________6_________7_________8_________9________10________11________12________13
1234567890123456789012345678901234567890123456789012345678901234567890123456789012345678901234567890123456789012345678901234567890
Node    |Node Name   |S|T|Volt  |PLoad  |QLoad  |PGen   |QGen   |Pmin   |Pmax   |Qmin   |Qmax   |Sta  |Pprim  |Sks__  |X/R    |T|

##N
##ZUA
UYUVIL51 Yuvileina    0 0        30.0000 12.3225       0       0 
UKURAK51 Kurakhivska  0 0 118.80 57.8225 56.2520       0       0 
UBILYT51 Bilytska     0 0 117.84 75.1692 28.8311       0       0 
UTSEN151 Tsentralna   0 0              0       0       0       0       0 -16.000 20.0000 -20.000 
UTSEN152 Tsentralna   0 0              0       0       0       0 
UKOSTI51 Kostiantyniv 0 0              0       0       0       0 
UTRAVN51 Travneva     0 0 117.05 5.78225 -3.7998       0       0 
UYUVIL21 Yuvileina    0 0              0       0       0       0 
UKHME483 Khmelnytska  0 0 342.25 11.5645 6.25023       0       0 
UKHME403 Khmelnytska  0 0 742.50 1.86923 587.469       0       0 
UKHME405 Khmelnytska  0 0              0       0       0       0 
UMEZHO51 Mezhova-tiah 0 0 116.56 6.36047 2.50009       0       0 
UPOKRO51 Pokrovska    0 0 117.23 14.4556 5.54443       0       0 
UHIRS_5A HIRS_KA      0 0              0       0       0       0 
UNOVO151 Novotroitska 0 0 114.64 14.4556 5.54443       0       0 
UKYIVS8B Kyivska      0 0 334.12       0       0       0       0 
UTRYPI85 Trypilska TP 0 0 330.00 51.8090 19.8713       0       0       0 -16.000 20.0000 -20.000 
UPS 3381 PS 330 KV _T 0 0 334.29 0.55626 2.91484       0       0 
UBAR  81 Bar          0 0 325.77       0       0       0       0 
UVINN181 Vinnytska    0 0 327.82       0       0       0       0 
UKAMI181 Kamianets-Po 0 0 314.64       0       0       0       0 
UKOZIA81 Koziatyn     0 0 330.63       0       0       0       0 
UPROME83 Prometei     0 0 332.61       0       0       0       0 
UTERNO81 Ternopilska  0 0 323.39       0       0       0       0 
UKHME581 Khmelnytska  0 0 327.68       0       0       0       0 
UCHER281 Chernivetska 0 0 310.30       0       0       0       0 
USHEPE81 Shepetivka   0 0 338.71       0       0       0       0 
UKYIVS01 Kyivska      0 0 753.15 1.92329 604.459       0       0 
UDNIP183 Dniprovska   0 0 331.28       0       0       0       0 
UKRYV181 Kryvorizka T 0 0 331.90       0       0       0       0 
UZAPO282 Zaporizka TP 0 0              0       0       0       0 
UZAPO283 Zaporizka TP 0 0              0       0       0       0 
UKRYV183 Kryvorizka T 0 0              0       0       0       0 
UPS 3380 PS 330 KV _P 0 0 333.98       0       0       0       0 
USUMY 51 SUMY1        0 0 112.96 21.3943 18.1257       0       0 
USTRYI22 Stryi        0 0 226.36       0       0       0       0 
ULVIV 22 Lviv pivdenn 0 0 229.23       0       0       0       0 
UMUKAC22 Mukacheve    0 0 227.20       0 87.2641       0       0 
ULUTS121 Lutsk pivden 0 0 224.53       0       0       0       0 
UZAKHI8A Zakhidnoukra 0 0 326.23       0       0       0       0 
UDNIS181 Dnistrovska  0 0 325.18       0       0       0       0 
UCHOR281 Chornobylska 0 0 338.76       0       0       0       0 
URIVN381 Rivne        0 0 337.16       0       0       0       0 
UMUKAC11 Mukacheve    0 0 405.24       0       0       0       0 
UMYRHO83 Myrhorod     0 0 332.89       0       0       0       0 
URUDNA83 Rudna        0 0 331.49       0       0       0       0 
UZMIIV51 Zmiivska TPP 0 0 115.86 28.9112 11.0889       0       0 
UZMIIV52 Zmiivska TPP 0 0 116.07 28.9112 12.5004       0       0 
UHRAKO51 Hrakove      0 0 115.54 2.31290 1.25005       0       0 
UKHAR151 Kharkivska   0 0 115.28 123.162 81.2530 -18.000 -7.0000 
UZALIU51 Zaliutyne    0 0 115.49 37.5846 12.5200       0       0 
ULOSIE51 Losieve      0 0 115.78 49.1491 14.3936       0       0 
ULOSIE84 Losieve      0 0 329.13       0       0       0       0 
USKHID51 Skhidna      0 0 115.37 11.5645 6.25023       0       0 
UKONOT51 Konotop      0 0 111.08 38.7411 11.8146       0       0 
UKREME31 Kremenchuk   0 0 157.78 138.601 59.2119       0       0 
UPOLTA51 Poltava      0 0 114.13 115.645 44.3555       0       0 
USHOS151 Shostka      0 0 110.06 17.3467 6.65332       0       0 
ULOZOV51 Lozova       0 0 115.29 6.93870 2.66133       0       0 
UTRIIC51 Triichate    0 0 115.70 2.89112 1.10889       0       0 
USTEPO51 Stepova      0 0 114.36 15.6121 5.98799       0       0       0 -0.8000 1.00000 -1.0000 
ULOZO151 Lozova raion 0 0 116.43 11.5645 4.43555       0       0 
UKOZAC51 Kozacha Lopa 0 0 115.10 11.5645 5.62521       0       0 
UIPZ  51 IPZ          0 0              0       0       0       0 
UHREBI51 Hrebinka     0 0 112.58 8.09515 3.10489       0       0 
UBUKYN51 Bukyne       0 0              0       0       0       0 
UESKHA51 Eskhar       0 2 114.95 4.62580 2.00007 -30.000 42.2193       0 -120.00 52.5000 -90.000 
UPIVN102 Pivnichnoukr 0 0              0       0       0       0 
UMYRHO51 Myrhorod     0 0 111.21 80.9515 37.5014       0       0       0 -0.8000 1.00000 -1.0000 
USHOS184 Shostka      0 0              0       0       0       0 
USUMY151 Sumy pivnich 0 0 115.35 38.7411 18.7507       0       0 
UBALAK51 Balakliia    0 0 115.77 4.56798 1.75204       0       0 
UTSYHA51 Tsyhanska    0 0 115.56 2.31290 0.98810       0       0 
UKRIUK31 Kriukiv      0 0 155.46 13.8774 5.32266       0       0 
UBARVI51 Barvinkove   0 0 115.71 2.89112 1.25005       0       0 
UYAZYK51 Yazykove     0 0 115.84 2.77548 1.25005       0       0 
UPERED51 Pereddonbasi 0 0              0       0       0       0 
UVOVCH51 Vovchansk    0 0 115.36 2.89112 1.87507       0       0 
UPYRIA51 Pyriatyn     0 0 112.50 6.93870 2.66133       0       0 
UOBOLO31 Obolon       0 0 149.64 19.0814 -13.192       0       0 
UTERES51 Tereshchensk 0 0 110.19 5.78225 2.21777       0       0 
USHOST51 Shostkinska  0 2 110.00 10.4080 4.44645 -26.000 2.39707       0 -56.000 24.5000 -42.000 
UROMNY51 Romny        0 0 110.57 13.2992 5.10088       0       0 
USERED51 Seredyna-Bud 0 0 110.10 1.73467 1.25005       0       0 
UHAVR151 Havrylivka   0 0 115.57 2.89112 1.25005       0       0 
ULOZO131 Lozova raion 0 0 153.42       0       0       0       0 
UVLASI31 Vlasivka     0 0 155.50 3.46935 1.33066       0       0 
UVLASI32 Vlasivka     0 0        3.00000 3.00000       0       0 
UKREM331 Kremenchuk-m 0 0 155.41 11.5645 4.43555       0       0 
UKREM332 Kremenchuk-m 0 0        22.0000 7.80628       0       0 
UOTPLO81 OtpLos       0 0 329.39       0       0       0       0 
UZAPO284 Zaporizka TP 0 0 335.49       0       0       0       0 
USUMY150 SUMY1        0 0 114.72 78.0604 34.3763       0       0 
UKREME82 Kremenchuk   0 0 332.81       0       0       0       0 
UDNIP231 Dnipro-Donba 0 0 156.29 164.794 67.9373       0       0 
UZAPO131 Zaporizka    0 2 155.25 163.059 62.5412 -69.000 37.1530       0 -435.00 39.2000 -298.60 
UZAPO133 Zaporizka    0 0 156.68 11.5645 5.62521       0       0       0 -452.00 58.8000 -222.00 
UPAVLO83 Pavlohradska 0 0 332.01       0       0       0       0 
UHAZOP31 HAZOPROVID   0 0 155.33 14.4556 6.87525       0       0 
UZAPO231 Zaporizka TP 0 0        40.0000 17.0000       0       0 
UPRAVO31 Pravoberezhn 0 0 155.69 101.189 43.7516       0       0 
UPRAVO37 Pravoberezhn 0 2 152.90       0       0 -72.000 10.0000       0 -72.000 10.0000 -56.000 
UPRAVO38 Pravoberezhn 0 2 153.40       0       0 -60.081 8.50807       0 -72.000 10.0000 -42.741 
UPRAVO39 Pravoberezhn 0 0 141.52       0       0       0       0       0 -72.000       0 -42.741 
UPRAVO3A Pravoberezhn 0 0 141.52       0       0       0       0       0 -67.000       0 -80.000 
UPRAVO3B Pravoberezhn 0 0 137.97       0       0       0       0       0 -67.000       0 -80.000 
UPRAVO3C Pravoberezhn 0 0 141.52       0       0       0       0       0 -67.000       0 -80.000 
UPRAVO3D Pravoberezhn 0 0 141.48       0       0       0       0       0 -67.000       0 -80.000 
UPRAVO3E Pravoberezhn 0 0 141.48       0       0       0       0       0 -67.000       0 -80.000 
UPRAVO3F Pravoberezhn 0 0 141.48       0       0       0       0       0 -67.000       0 -80.000 
UPRAVO83 Pravoberezhn 0 0 335.00       0       0       0       0 
UNIKOP31 Nikopolska   0 0 157.42 216.834 87.0799       0       0 
UPRYDN31 Prydniprovsk 0 0 158.24 8.67337 3.75014       0       0 
UPRYDN32 Prydniprovsk 0 0 157.63 26.0201 11.8754       0       0 
UKAMIA31 Kamianska    0 0 154.74 4.62580 1.77422       0       0       0 -8.0000 3.30000 -3.3000 
UKAMIA32 Kamianska    0 0 154.32 63.6047 25.0009       0       0       0 -160.00 70.0000 -120.00 
UKILTS31 Kiltseva-Liv 0 0 156.99 150.338 57.6622 -5.0000 -2.0000       0 -16.000 7.00000 -12.000 
UDNIP331 Dniprovska C 0 0 154.43 54.9314 25.0009       0       0 -4.0000 -74.000 -3.0000 -123.20 
UPERSH31 Pershotravne 0 0 156.26 125.475 56.2520       0       0 
UPIVNI31 Pivnichna    0 0 155.80 20.2379 8.75032       0       0       0 -0.8000 1.00000 -1.0000 
UKREM231 Kremenchutsk 0 2 155.70 17.3467 6.87525 -10.500 -79.216       0 -252.00 -5.0000 -178.75 
UOLEKS31 Oleksandriia 0 0 154.82 11.5645 5.62521       0       0       0 -70.000 35.0100 -35.010 
UKRYVO81 Kryvorizka   0 0 330.99       0       0       0       0 
UKRYVO31 Kryvorizka   0 0 154.10 164.794 63.2066 -2.0000 -1.0000       0 -16.000 7.00000 -12.000 
UPIVD331 Pivdenna     0 0 154.46 46.2580 17.7422 -1.0000 -1.0000       0 -16.000 20.0000 -20.000 
UPIVD332 Pivdenna     0 0 156.93 49.1491 21.8758       0       0       0 -25.726 12.8655 -12.865 
UFEROS31 Ferosplavna  0 0 154.20 28.9112 13.7505       0       0       0 -8.0000 10.0000 -10.000 
UKRYV131 Kryvorizka T 0 0 157.30 92.5160 35.4844       0       0 
UKAKH231 Kakhovska HP 0 2 156.75 6.93870 4.37516 -40.000 -57.589 -20.000 -324.00       0 -186.47 
UPOBUZ31 Pobuzka      0 0 151.74 75.1692 28.8311 -2.0000 -2.0000       0 -8.0000 10.0000 -10.000 
UPROME31 Prometei     0 2 154.80 63.6047 24.3955 -54.000 -116.20 -10.000 -352.00 52.8000 -276.60 
UPRYZO31 Pryzova      0 0 155.58       0       0       0       0 
UMOLOC31 Molochanska  0 0        1.00000 0.35483       0       0 
UUKRAI83 Ukrainka     0 0 333.33       0       0       0       0 
UUKRAI31 Ukrainka     0 0 151.71 13.2992 5.10088       0       0 
UKIRO231 Kirovohradsk 0 0 150.66 80.9515 37.5014       0       0       0 -16.000 7.00000 -12.000 
UMELIT31 Melitopolska 0 2 151.50 5.78225 0.94767 -9.6230 -3.0644 
UHIRNY81 Hirnycha     0 0 329.84       0       0       0       0 
UHIRNY31 Hirnycha     0 0 156.69 106.972 41.0288 -15.000 15.0000       0 -40.000 17.5000 -30.000 
UVUZLO31 Vuzlova-150  0 0 157.69 28.9112 11.0889       0       0       0 -0.8000 1.00000 -1.0000 
UDNIP131 Dniprovska   0 0 154.08 40.4757 18.7507       0       0 
UDNIP132 Dniprovska   0 0 157.24 57.8225 25.0009       0       0       0 -0.8000 1.00000 -1.0000 
UPAVLO31 Pavlohradska 0 0 156.21 57.8225 22.1777       0       0 
URUDNA31 Rudna        0 0 156.26 82.1079 31.4924       0       0 
UHIRNY32 Hirnycha     0 0 156.03 138.774 53.2266 -10.000 17.0000       0 -40.000 17.5000 -30.000 
UVUZLO32 Vuzlova-150  0 0 153.08 104.080 50.0018       0       0       0 -4.8000 6.00000 -6.0000 
UVDHMK81 VDHMK        0 0 332.13       0       0       0       0 
UVDHMK31 VDHMK        0 0 155.58 43.3669 18.7507       0       0       0 -8.0000 3.50000 -6.0000 
UVELY131 Velyka Biloz 0 0        60.0000 25.0000       0       0 
UPARTY31 Partyzany    0 0 150.36 13.8774 6.87525       0       0 
UFUNDU31 Fundukliivka 0 0 154.25 4.04757 1.87507       0       0 
UZNAMI31 Znamianka    0 0 153.15 34.6935 13.7505       0       0       0 -0.8000 1.00000 -1.0000 
UNOVOM51 Novomyrhorod 0 0 115.87 5.78225 2.50009       0       0 
UKVART81 Kvartsyt     0 0 333.68       0       0       0       0 
UKVART31 Kvartsyt     0 0 153.29 2.31290 1.25005       0       0 
UPOMIC31 Pomichna     0 0 151.31 11.5645 5.00018       0       0 
UPETRO51 Petropavlivk 0 0 116.50 8.96249 2.73323       0       0 
USUHOK31 Suhokleia    0 0 151.46 10.4080 3.17408       0       0 
UNAFTO31 Naftoprovid  0 0 156.75 4.62580 1.77422       0       0 
UROZIZ51 Rozizd-5     0 0 116.44 1.27209 0.62502       0       0 
USLOV151 Slovianka    0 0 117.11 0.57822 0.22728       0       0 
UMEZH151 Mezhova      0 0 116.50 3.35370 1.28631       0       0 
UBOBRY31 Bobrynets    0 0 151.88 4.62580 1.77422       0       0 
UCHAPL51 Chaplyne tra 0 0 116.59 1.15645 0.62502       0       0 
UMAR_I31 MAR_INS_KA-1 0 0 156.24       0       0       0       0 
UPRAVD51 Pravdynska   0 0 115.62 1.73467 0.66533       0       0 
UCHOR283 Chornobylska 0 0 338.76       0       0       0       0 
UCHOR203 Chornobylska 0 0 747.47 0.94719 297.688       0       0 
UBURSH2T Burshtynska  0 0              0       0       0       0 
UBURSH8X Burshtynska  0 0              0       0       0       0 
UKAMIA8G Kamianska    0 0              0       0       0       0 
UCHOR284 Chornobylska 0 0 338.76       0       0       0       0 
UTRYKH21 Trykhaty     0 0 225.72       0       0       0       0 
UTRYKH31 Trykhaty     0 0 150.72 46.3910 -17.793 -6.6220       0 
UBERE251 Berezivka    0 0 114.35 17.6416 6.76643       0       0       0 -0.8000 1.00000 -1.0000 
UDOBRL21 Dobroslavska 0 0 221.90       0       0       0       0 
UDOBRL51 Dobroslavska 0 0 116.92 20.6368 7.91524       0       0 
UUSATO83 Usatove      0 0 331.89       0       0       0       0 
UUSATO86 Usatove      0 0              0       0       0       0 
UUSATO51 Usatove      0 0 114.21 246.879 75.2891       0       0       0 -320.00 140.000 -240.00 
UKANAL51 Kanal        0 0 114.54 10.8591 4.16498       0       0       0 -32.400 16.2000 -16.200 
UNOVOO51 Novoodeska   0 0 115.55 84.3399 33.3575 -1.0200 -0.3100       0 -2.4000 1.05000 -1.8000 
USTARO51 Starokazache 0 0 113.53 29.6225 11.3617       0       0 
UARTSY51 Artsyz       0 0 111.84 37.2666 14.2936       0 -2.2500       0 -4.8000 2.10000 -3.6000 
UKHNPZ31 KHNPZ        0 2 148.50 43.3669 19.3914 -60.000 3.46879       0 -110.00 54.9900 -54.990 
UKAKH131 Kakhovska    0 0 156.62 18.1852 6.97490       0       0       0 -33.780 16.8930 -16.893 
UKAKH121 Kakhovska    0 0              0       0       0       0 
UVOZNE31 Voznesenska  0 0 154.16 13.9410 5.34705 -22.052       0 
UYUZH231 Yuzhno-Ukrai 0 0 155.13 18.0927 -6.9394 -5.1100       0       0 -16.000 7.00000 -12.000 
UTSENT31 Tsentralna   0 0 149.18 97.5408 37.4117 -16.440 -6.3900       0 -40.000 17.5000 -30.000 
UMYKOL31 Mykolaivska  0 0 151.36 49.3746 -18.938 -5.0000       0       0 -16.000 7.00000 -12.000 
UBOLHR51 Bolhrad      0 0 108.54 5.53939 1.68931       0       0 
UPODIL51 Podilska     0 0 113.21 26.0317 9.98442       0       0       0 -0.8000 1.00000 -1.0000 
UPERVO31 Pervomaiska  0 0 151.34 28.4949 10.9292       0       0       0 -4.0000 1.75000 -3.0000 
UNOVOT31 Novotroitska 0 2 150.00 21.7702 8.34993       0 8.71644       0 -137.70 68.8500 -68.850 
URUBAN31 Rubanivka    0 0        12.1000 7.30000       0       0 
USNIHU31 Snihurivka   0 0 150.15 14.7679 5.66420 -6.0110       0       0 -84.950 42.4755 -42.475 
UMYKIL31 Mykilska     0 0 151.35 20.0471 10.1691       0       0       0 -32.000 14.0000 -24.000 
UTRYFO31 Tryfonivska  0 0 157.30 2.02379 2.43759       0       0 
UVOZNE51 Voznesenska  0 0 115.52 5.67817 1.73163       0       0 
UKRASN51 Krasni Okny  0 0 114.21 4.22104 1.81257       0       0       0 -8.0000 10.0000 -10.000 
UKUCHU51 Kuchurhan    0 0 116.32 3.52717 1.35284       0       0 
UKUCHU52 Kuchurhan    0 0 116.27 15.5022 5.94585       0       0 
UIZMAI51 Izmail       0 0 107.82 26.5868 10.1973 -12.213 -4.3600 
UBOLHR52 Bolhrad      0 0 108.55 6.78258 2.60145 -30.678       0       0 -34.140 17.0730 -17.073 
UBUDZH51 Budzhak      0 0 108.58 1.44556 0.62502       0       0 
UTSEN221 Tsentrolit   0 0 222.02       0       0       0       0 
URENI 51 Reni         0 0 108.54 3.46935 1.33066       0       0 
UTSEN251 Tsentrolit   0 0 114.02 65.2816 25.0387       0       0 
UADZHA51 Adzhalyk     0 0 114.84 28.8303 11.0578       0       0 
UBILIA51 Biliaivka    0 0 114.52 11.1597 4.81267       0       0 
UBERYS31 Beryslavska  0 0 156.67 4.39451 2.56259       0       0 
UBERE121 Berezan      0 0 223.80 4.47546 2.63760       0       0       0 -53.400 26.7030 -26.703 
UTASHL81 Tashlytska H 0 0 336.59       0       0       0       0 
U7GRES81 Moldav GRES  0 2 336.60 4.36632 7.32160 -190.00 -174.69 -150.00 -800.00 200.000 -471.00 
U7GRES51 Moldav GRES  0 0 117.03 8.62067 -6.3440       0       0 
U7CHIS81 Chisinau     0 0 333.32       0       0       0       0 
U7CHIS51 Chisinau     0 0 116.43 127.654 48.0168       0       0       0 -9999.0 1.00000 -1.0000 
U7DUBA51 Dubasari     0 0 115.65 36.0501 13.2496 -10.000 -5.0000       0 -9999.0 10.0000 -25.000 
U7VASI51 Vasilevka    0 0 115.32 0.45372 0.03120       0       0 
U7HBC 81 HBC          0 0 336.05       0       0       0       0 
U7HBC 82 HBC-1        0 0 336.12       0       0       0       0 
U7BILI51 Biliceni     0 2 114.40 59.2900 13.0832 -21.590 -14.093       0 -40.000 25.0000 -25.000 
U7BILI81 Biliceni     0 0 332.74 -0.6435 -30.129       0       0       0 -9999.0 1.00000 -1.0000 
U7VULC51 Vulcanesti   0 0 108.09 29.1736 -2.4440       0       0       0 -9999.0 1.00000 -1.0000 
U7VULC11 Vulcanesti   0 0 382.75 0.43861 137.036       0       0 
U7GRES11 Moldav GRES  0 2 395.20 11.3194 119.890 -120.00 -113.89 -120.00 -425.00       0 -200.00 
U7HBC 51 HBC          0 0 116.97 50.0093 7.65440       0       0       0 -9999.0 1.00000 -1.0000 
U7HBC 83 HBC-2        0 0 336.16       0       0       0       0 
U7STRA81 Straseni     0 0 335.02       0       0       0       0 
U7STRA51 Straseni     0 0 114.25 52.6551 17.5968       0       0       0 -9999.0 9999.00 -9999.0 
U7RIBN81 Ribnita-1    0 0 331.15 -0.3423 0.28080       0       0 
U7RIBN82 Ribnita-2    0 0 330.78 24.0648 10.2856       0       0 
U7RIBN51 Ribnita      0 0 118.02 33.5458 13.8112       0       0       0 -9999.0 9999.00 -9999.0 
U7CHIC51 Chisinau CET 0 2 115.94 86.3659 62.2128 -50.000 -93.215 -40.000 -340.00 80.0000 -235.00 
U7HBC282 HBC-2        0 0 336.11       0       0       0       0 
U7BRIC51 Briceni      0 0 114.27 8.69138 -1.2896 -35.000       0       0 -50.000 175.000 -700.00 
U7OCNI51 Ocnita       0 0 113.52 6.34618 0.60320       0       0       0 -9999.0 1.00000 -1.0000 
U7OTAC51 Otaci        0 0 112.89 3.80653 -1.8928       0       0 
U7LARG51 Larga        0 0 114.15 1.47312 -0.1248       0       0 
U7CIOA51 Cioara       0 0 114.98 3.81242 -0.9672       0       0 
USOR1 51 SOR1         0 0 114.30 13.1718 1.43521       0       0 
U7UNGE51 Ungeni       0 0 113.06 10.8661 1.11280       0       0 
U7COST51 CHE Costesti 0 0 111.06 8.19052 17.0560       0       0       0 -9999.0 9999.00 -9999.0 
UNIZHY51 Nizhynska    0 0 116.99 27.9861 10.7340       0       0       0 -4.0000 5.00000 -5.0000 
UDARNY51 Darnytska CH 0 2 115.50 111.193 42.6478 -80.000 -109.51 -75.000 -150.00 -12.500 -125.00 
UNYVKY51 Nyvky        0 0 115.68 117.033 44.8878       0       0 
UNYVKY81 Nyvky        0 0 325.09       0       0       0       0 
UKYIV251 Kyivska CHPP 0 0 115.49 175.318 67.2429       0       0 
UNOVOK51 Novokyivska  0 0 116.64 193.127 58.8967       0       0 
UBILOT51 Bilotserkivs 0 0 119.33 108.244 41.5167 -52.000 -65.000 -50.000 -120.00 -1.0000 -70.000 
UZHYTO51 Zhytomyrska  0 0 115.37 129.518 49.6763       0       0 
UKANIV51 Kanivska HPP 0 2 116.05 48.5709 22.6258 -8.0000 -54.829       0 -407.00 -0.7500 -130.00 
UCHERK51 Cherkaska    0 0 116.64 59.2681 22.7322       0       0 
UMYRO151 Myronivka    0 0 115.85 56.4926 21.6677       0       0       0 -45.000 22.5000 -22.500 
UKYIV151 Kyivska CHPP 0 0 113.65 136.692 52.4282       0       0 
UPIVN251 Pivnichna    0 0 115.11 289.286 88.2217       0       0 
UPOLI151 Poliana      0 0 117.07 33.3636 12.7966       0       0 
UCHOR251 Chornobylska 0 0 114.77 5.78225 1.82298       0       0       0 -16.000 20.0000 -20.000 
ULISOV8C Lisova       0 0 334.98       0       0       0       0 
ULISOV51 Lisova       0 0 115.82 79.7372 30.5831       0       0       0 -18.000 9.00000 -9.0000 
USLAVU51 Slavutych    0 0 117.60 3.46935 -1.3307       0       0 
UCHER151 Chernihivska 0 0 118.73 23.2446 8.91546       0       0 
UBROVA51 Brovarska    0 0 116.33 135.825 52.0955 -2.1780 -2.0000       0 -26.010 13.0050 -13.005 
UBERE351 Berezna      0 0 114.91 13.5883 5.80508       0       0       0 -16.000 20.0000 -20.000 
UMALA 31 Mala Burimka 0 0 149.45 5.89789 2.56259       0       0 
UUMAN 31 Uman         0 0 147.10 43.9451 16.8551       0       0       0 -16.000 6.60000 -6.6000 
UBAKH151 Bakhmach-2   0 0 110.56 9.25160 3.54844       0       0       0 -8.0000 3.50000 -6.0000 
UPROHR51 Prohres      0 0 113.34 0.57822 0.22728       0       0 
UZOLOT31 Zolotonosha  0 0 149.54 1.04080 0.56252       0       0 
UZOLOT51 Zolotonosha  0 0 113.51 12.7788 4.90128       0       0 
UCHORN51 Chornorudka  0 0 113.29 1.73467 0.66533       0       0 
UPOCHU51 Pochuiky     0 0 116.48 6.12918 1.86918       0       0 
UMYKH151 Mykhailivka  0 0 113.52 4.10540 1.57462       0       0 
UCHERN51 Chernihivska 0 0 117.28 50.9994 22.8133       0       0 -90.000 -210.00 -10.000 -88.000 
USCHEV31 Schevchenko  0 0 152.14       0       0       0       0 
USCHEV51 Schevchenko  0 0 116.63 34.6935 13.3066 -5.2000 -2.0000       0 -16.000 20.0000 -20.000 
UKAMI231 Kamianka     0 0 154.47 5.78225 2.50009 -60.026       0       0 -65.000 15.9615 -15.962 
UFASTI51 Fastiv       0 0 116.94 37.4690 14.7278       0       0 
UMYROP51 Myropil      0 0 112.66       0       0       0       0 
URUZHY51 Ruzhyn       0 0 114.14 3.46935 1.33066       0       0 
UORBIT31 Orbita       0 0 154.36 4.62580 1.77422 -58.969       0       0 -60.000 20.0025 -20.003 
UOBOL151 Obolonnia    0 0 110.37 5.20402 -2.5001       0       0       0 -2.4640 1.01640 -1.0164 
UPRYLU51 Pryluky      0 0 113.36 27.1188 11.7504       0       0 
UN.SIV51 N.Siverskyi  0 0 109.73 3.46935 1.87507       0       0 
UTALNE31 Talne        0 0 149.15 9.25160 3.95240       0       0       0 -0.8000 0.33000 -0.3300 
UTALAL51 Talalaivka-1 0 0 110.77 2.31290 1.25005       0       0 
UCHEKR51 Chekraska CH 0 2 116.60 37.0642 14.5687 -122.00 38.7291       0 -230.00 43.1250 -129.38 
UCHUDN51 Chudniv      0 0 115.01 3.46935 1.33066       0       0 
UCHUDN52 Chudniv      0 0 116.46 11.5645 5.00018       0       0 
UBRIVK51 Brivky       0 0 116.39 4.22104 1.61898       0       0 
UBRIVK52 Brivky       0 0 112.66 6.36047 2.43955       0       0 
UOLEVS51 Olevsk       0 0 114.81 7.00025 2.56259       0       0 
UPLYSK51 Plysky       0 0 116.62 4.27886 1.64115       0       0 
UVINN151 Vinnytska    0 0 114.17 133.570 51.2306 -2.4000 -0.4600       0 -24.000 9.90000 -9.9000 
USHEPE51 Shepetivka   0 0 119.11 57.8225 22.1777       0       0       0 -0.8000 0.35000 -0.6000 
UDNIST51 Dnistrovska  0 0 112.87 7.28481 4.36641 -0.3600 -0.0200       0 -16.000 20.0000 -20.000 
UKHME551 Khmelnytska  0 0 114.79 101.768 39.0328 -0.4800 -0.5100       0 -12.000 4.95000 -4.9500 
UTERNO51 Ternopilska  0 0 113.56 104.080 31.7408       0       0       0 -24.000 9.90000 -9.9000 
UBAR  51 Bar          0 0 112.75 43.3669 16.6333 -0.1000 -0.0500       0 -8.0000 10.0000 -10.000 
UCHER251 Chernivetska 0 0 115.17 123.740 47.4603 -2.1100 2.00000 
ULADYZ51 Ladyzhynska  0 0 113.81 83.2644 35.5716       0       0       0 -16.000 7.00000 -12.000 
UKOZI151 Koziatyn-2   0 0 113.39 10.4080 5.62520       0       0 
UVINNY51 Vinnytska    0 0 114.52 12.1427 4.65733 -0.4900 0.03000       0 -16.000 20.0000 -20.000 
UPOLON51 Polonne      0 0 112.07 12.7209 4.87910       0       0 
UKOZIA51 Koziatyn     0 0 114.46 11.5645 4.43555 -1.9300 -0.0100       0 -4.0000 1.75000 -1.7500 
UHLUKH51 Hlukhivtsi   0 0 113.35 1.73467 0.66533       0       0 
UHAVRY51 Havrylivtsi  0 0 114.47 5.78225 3.12511       0       0 
UVYZHN51 Vyzhnytsia   0 0 111.64 13.8774 6.25023       0       0 
UKREM451 Kremenets    0 0 116.21 12.7209 4.87910       0       0 
UNETIS51 Netishyn     0 0 117.87 2.31290 1.25005       0       0 
UKALYN51 Kalynivka    0 0 113.48 18.5032 7.90479       0       0 
UZBORI51 Zboriv       0 0 111.36 12.1427 4.65733       0       0 
UKAMI151 Kamianets-Po 0 0 110.82 72.8563 27.9439 -2.4700 -0.3400 
UNELYP51 Nelypivtsi   0 0 110.87 7.51692 2.88311       0       0 
USHAKH51 Shakhty      0 0 113.59 1.15645 0.62502 -16.000 -1.0000       0 -16.000 6.60000 -6.6000 
UNEMII51 Nemiia       0 0 112.84 12.7209 4.87910       0       0 
UPOLON52 Polonne      0 0 119.05 1.15645 0.62502       0       0 
UPOROH51 Porohy       0 0 106.64 16.8756 5.98799       0       0 
USVIAT51 Sviatohorsk  0 0              0       0       0       0 
URIVN351 Rivne        0 0 119.02 117.206 44.9543 -9.0000       0       0 -16.000 20.0000 -20.000 
URIVN251 Rivnenska NP 0 0 118.22 48.7444 18.6958       0       0 
UIVANO83 Ivano-Franki 0 0 320.70       0       0       0       0 
UIVANO51 Ivano-Franki 0 0 117.43 45.1594 54.9965       0       0 
UGPP-121 GPP-1        0 0 224.03       0       0       0       0 
UGPP-151 GPP-1        0 0 116.89 8.55488 4.75017 -10.000 -3.0000 -6.0000 -188.00 -3.0000 -150.00 
USTRYI51 Stryi        0 0 117.67 69.7781 20.8027       0       0       0 -8.0000 10.0000 -10.000 
UKURAK52 Kurakhivska  0 2 122.84 13.0000 7.00000 -165.85 -91.092 -70.000 -280.00 -30.000 -180.00 
UKURAK83 Kurakhivska  0 2 346.60       0       0 -167.00 -0.0771 -130.00 -167.00       0 -100.00 
UKURAK84 Kurakhivska  0 2 346.67       0       0 -77.782 -0.0359 -77.000 -167.00       0 -100.00 
UKURAK85 Kurakhivska  0 2 345.31 17.5000 8.00000 -130.00 -0.0600 -130.00 -167.00       0 -100.00 
UVOLOV21 Volovets     0 0 226.73       0       0       0       0 
UVOLOV51 Volovets     0 0 118.53 38.0878 11.3550 -7.0000 -2.8000       0 -19.200 8.40000 -14.400 
UMUKAC51 Mukacheve    0 0 118.13 127.133 37.9018 -6.0000 -0.3000       0 -8.0000 3.30000 -3.3000 
UROZDI21 Rozdil       0 0              0       0       0       0 
UROZDI51 Rozdil       0 0 103.93 27.4657 8.37603       0       0       0 -48.000 18.0000 -18.000 
UZALIU53 Zaliutyne    0 0 110.21       0       0       0       0 -50.000 -120.00 -10.000 -75.000 
UZALIU55 Zaliutyne    0 2 112.97 12.5000 10.0000 -263.40 59.6453 -75.000 -300.00 100.000 -200.00 
ULVIV 51 Lviv pivdenn 0 0 107.64 122.352 46.9281 -6.1000 -1.5000       0 -12.000 5.25000 -9.0000 
ULVIV-21 Lviv-2       0 0 230.05       0       0       0       0 
ULVIV-51 Lviv-2       0 0 108.45 90.0874 27.4734 -3.9000 -0.5000       0 -8.0000 3.50000 -6.0000 
UDOBR151 Dobrotvirska 0 0 112.43 69.3870 26.6133       0       0       0 -8.0000 10.0000 -10.000 
UNOVOV51 Novovolynsk  0 0 118.26 31.1085 24.5009       0       0 
URADYV21 Radyvyliv    0 0 231.64       0       0       0       0 
URADYV51 Radyvyliv    0 0 117.53 22.1460 8.49407       0       0 
UKRYV189 Kryvorizka T 0 2 350.47 11.0000 8.00000 -232.35 -192.02 -62.500 -300.00 -60.000 -218.46 
UBORYS21 Boryslav     0 0 224.63       0       0       0       0 
UPRYDN35 Prydniprovsk 0 2 158.81       0       0 -150.00 -10.070 -100.00 -150.00 -10.000 -100.00 
UBORYS51 Boryslav     0 0 119.52 38.0134 11.3328 -18.200 -1.9000       0 -20.000 8.25000 -8.2500 
UPRYDN36 Prydniprovsk 0 2 159.31 11.0000 9.00000 -114.21 -25.000 -100.00 -150.00 -25.000 -117.90 
UBURSH13 Burshtynska  0 0 401.16       0       0       0       0 
UBURSH14 Burshtynska  0 0              0       0       0       0 
URADYV81 Radyvyliv    0 0 332.38       0       0       0       0 
UHRABI51 Hrabiv       0 0 115.39 58.2851 22.3552 -12.000 5.00000       0 -20.000 8.25000 -8.2500 
UHRABI21 Hrabiv       0 0              0       0       0       0 
UHRABI22 Hrabiv       0 0              0       0       0       0 
UKOVEL21 Kovel        0 0              0       0       0       0 
UNOVOV21 Novovolynsk  0 0 228.88       0       0       0       0 
UOTPLZ81 OtpLZap3     0 0 323.76       0       0       0       0 
ULVIV183 Lviv zakhidn 0 0 317.01       0       0       0       0 
ULVIV151 Lviv zakhidn 0 0 111.69 27.9861 10.7340       0       0 
UTASHL82 Tashlytska H 0 0 322.42       0       0       0       0 230.000 -160.00 50.0000 -50.000 
UTASHL83 Tashlytska H 0 0 322.42       0       0       0       0 230.000 -140.00 50.0000 -50.000 
ULUTSK51 Lutsk pivnic 0 0        47.0642 16.6998       0       0 
UYUZH284 Yuzhno-Ukrai 0 2 338.84 50.0000 20.0000 -980.00 -124.01 -300.00 -980.00 -70.000 -200.00 
USNIAT51 Sniatyn      0 0 114.20 11.5645 4.54562       0       0 
UKUTY 51 Kuty         0 0 112.82 11.6801 4.47990       0       0       0 -3.2000 1.32000 -1.3200 
UNOVOV81 Novovolynsk  0 0 335.22       0       0       0       0 
UKOVEL51 Kovel        0 0 100.30 44.8124 33.2315       0       0       0 -2.4000 1.05000 -1.8000 
UBURSH51 Burshtynska  0 0 107.55 11.8129 4.19159       0       0 
UBOHOR84 Bohorodchany 0 0 322.19       0       0       0       0 
UYUZH203 Yuzhno-Ukrai 0 2 751.20 45.5000 18.2000 -980.00 -116.24 -300.00 -980.00 -70.000 -150.00 
UBOHOR51 Bohorodchany 0 0 116.74 32.2650 12.3752       0       0 
UROZDI22 Rozdil       0 0              0       0       0       0 
ULUTS151 Lutsk pivden 0 0 116.25 29.9521 11.4881 -5.3000 -1.1000       0 -8.0000 3.30000 -3.3000 
UKOLOM51 Kolomyia     0 0 115.18 16.3059 6.25412       0       0 
UNADVI51 Nadvirna-195 0 0 115.06 29.1425 11.1776       0       0       0 -4.0000 1.65000 -1.6500 
USIANK51 Sianky       0 0 117.74 17.7793 5.90390 -10.600 0.70000       0 -20.000 8.75000 -15.000 
UVOLOV22 Volovets     0 0 226.73       0       0       0       0 
UOZHEN51 Ozhenino     0 0 117.99 7.69039 2.94964       0       0 
UL2_1 21 L2_1         0 0 230.05       0       0       0       0 
UOTPR121 OtpRozd      0 0 226.54       0       0       0       0 
UVOLO221 Volovets2    0 0 226.94       0       0       0       0 
UKYIV253 Kyivska CHPP 0 2 98.045 52.1000 18.4867 -100.00 7.59495 -40.000 -100.00 15.0000 -74.000 
UKYIV254 Kyivska CHPP 0 2 114.96 12.0000 4.25797 -150.00 11.3924 -100.00 -150.00 55.0000 -180.00 
UKYIV285 Kyivska CHPP 0 0 334.95 15.0000 5.32246 -266.28 -80.000 -150.00 -300.00 55.0000 -180.00 
UKALUS22 Kalush       0 0 224.20       0       0       0       0 
UKYIV152 Kyivska CHPP 0 0 103.27       0       0       0       0 -140.00 -300.00 35.0000 -180.00 
UKYIV153 Kyivska CHPP 0 0 103.27       0       0       0       0 -140.00 -300.00 80.0000 -200.00 
UKALUS51 Kalush       0 0 115.88 97.0049 42.1890 -15.000 13.0000       0 -32.000 13.2000 -13.200 
UTRYPI86 Trypilska TP 0 2 330.63       0       0 -250.00 -11.136 -70.000 -250.00 30.0000 -150.00 
UTRYPI87 Trypilska TP 0 2 330.63       0       0 -250.00 -11.136 -50.000 -250.00 30.0000 -150.00 
UOPORN51 Oporna       0 0 108.49 57.6524 19.1444       0       0 
UOTPRO21 OtpRozd      0 0 226.54       0       0       0       0 
UKALUS23 Kalush       0 0 224.35       0       0       0       0 
USARNY51 Sarny        0 0 113.25 40.2515 14.2825       0       0 
UL2_2 21 L2_2         0 0 230.05       0       0       0       0 
UVOLO121 Volovets2    0 0 226.94       0       0       0       0 
UKHME408 Khmelnytska  0 2 757.11 45.0000 23.0000 -872.38 -211.21 -300.00 -1040.0 -200.00 -480.00 
UKHME489 Khmelnytska  0 2 347.00       0       0 -1002.4 -283.19 -500.00 -1040.0 -200.00 -480.00 
UGPP-122 GPP-1        0 0 224.19       0       0       0       0 
UOTPRA81 OtpRad3      0 0 332.96       0       0       0       0 
ULADYZ87 Ladyzhynska  0 0              0       0       0       0 -190.00 -267.00 -30.000 -180.00 
UYAVOR81 Yavoriv      0 0 315.97       0       0       0       0 
UYAVOR51 Yavoriv      0 0 111.89 32.0915 12.3086 -26.665       0 
UDNIS183 Dnistrovska  0 0 309.22       0       0       0       0 421.000 -324.00 272.000 -229.00 
UDNIS184 Dnistrovska  0 2 329.65       0       0 421.000 -78.776 421.000 -324.00 20.0000 -87.500 
UDNIS185 Dnistrovska  0 2 333.12       0       0 377.185 -106.76 421.000 -324.00 85.0966 -131.41 
UHOROD51 Horodenka    0 0 115.70 7.62528 2.70568       0       0 
UKHUST21 Khust        0 0 226.18       0       0       0       0 
UKHUST51 Khust        0 0 117.25 98.2695 29.2968 -45.997 -15.800 
UBURSH25 Burshtynska  0 0 206.48       0       0       0       0 -94.000 -200.00 5.00000 -123.00 
UBURSH26 Burshtynska  0 0 206.48       0       0       0       0 -94.000 -155.00 5.00000 -123.00 
UBURSH28 Burshtynska  0 3 242.24       0       0 -131.20 -12.975 -120.00 -145.00 247.000 -247.00 
UBURSH29 Burshtynska  0 2 228.37       0       0 -120.00 -11.868 -120.00 -145.00 247.000 -247.00 
UBURSH87 Burshtynska  0 2 332.77 12.8000 7.69855 -200.00 -50.183 -100.00 -200.00 5.00000 -123.00 
UBURSH88 Burshtynska  0 2 332.77 12.8000 7.69855 -200.00 -50.183 -100.00 -200.00       0 -65.000 
UBURSH89 Burshtynska  0 2 332.77 12.8000 7.69855 -200.00 -50.183 -100.00 -200.00 70.0000 -130.00 
UBURSH8A Burshtynska  0 2 332.77 12.8000 7.69855 -200.00 -50.183 -100.00 -200.00 30.0000 -117.00 
UBURSH8B Burshtynska  0 2 332.77 12.8000 7.69855 -200.00 -50.183 -100.00 -200.00 5.00000 -123.00 
UDOBR152 Dobrotvirska 0 2 115.02       0       0 -100.00 -25.568 -40.000 -100.00       0 -62.128 
UDOBR127 Dobrotvirska 0 2 232.47       0       0 -100.00 -11.773 -50.000 -120.00       0 -92.000 
UDOBR128 Dobrotvirska 0 2 230.80       0       0 -100.00 -1.7727 -50.000 -120.00       0 -99.000 
UKRASN5  KRASNE       0 0 111.27 14.5134 5.56662       0       0 
USNOVY51 SNOVYDOVYCI  0 0 114.87 1.15645 0.62502       0       0 
UIVERS51 Iverska      0 0 117.33 1.73467 0.66533       0       0 
UPS 3351 PS 330 KV _P 0 0 116.38       0       0       0       0       0 -74.000 27.1425 -27.143 
UTRAVN81 Travneva     0 0 335.84       0       0       0       0 
UPS 3352 PS 330 KV _P 0 0 116.38       0       0       0       0       0 -74.000 27.1425 -27.143 
UMYKOL81 Mykolaivska  0 0 333.51       0       0       0       0 
UBILOT81 Bilotserkivs 0 0 330.40       0       0       0       0 
UADZHA81 Adzhalyk     0 0 333.19       0       0       0       0 
UTRYKH81 Trykhaty     0 0 334.91       0       0       0       0 
UBILYT81 Bilytska     0 0 333.52       0       0       0       0 
ULVIV 81 Lviv pivdenn 0 0 324.48       0       0       0       0 
UNOVOO81 Novoodeska   0 0 331.57       0       0       0       0 
UPODIL81 Podilska     0 0 332.12       0       0       0       0 
UZMIIV81 Zmiivska TPP 0 0 330.48       0       0       0       0 
UKANIV81 Kanivska HPP 0 0 330.23       0       0       0       0 
UZHYTO81 Zhytomyrska  0 0 333.53       0       0       0       0 
UNIZHY81 Nizhynska    0 0 324.82       0       0       0       0 
UPOLI181 Poliana      0 0 328.09       0       0       0       0 
USLAVU81 Slavutych    0 0 340.18       0       0       0       0 
UCHERK81 Cherkaska    0 0 328.48       0       0       0       0 
UCHER181 Chernihivska 0 0 340.08       0       0       0       0 
UPOBUZ81 Pobuzka      0 0 332.73       0       0       0       0 
UKHAR181 Kharkivska   0 0 327.49       0       0       0       0 
UFEROS81 Ferosplavna  0 0 333.13       0       0       0       0 
UDNIP281 Dnipro-Donba 0 0              0       0       0       0 
UKYIV181 Kyivska CHPP 0 0 325.75       0       0       0       0 
UBROVA81 Brovarska    0 0 325.09       0       0       0       0 
UHRABI81 Hrabiv       0 0 337.48       0       0       0       0 
UDOBR121 Dobrotvirska 0 0 231.22       0       0       0       0 
UZAPO181 Zaporizka    0 0 336.11       0       0       0       0 
UKOVEL81 Kovel        0 0              0       0       0       0 
URIVN281 Rivnenska NP 0 0 338.58       0       0       0       0 
UARTSY81 Artsyz       0 0 332.98       0       0       0       0 
UKAKH181 Kakhovska    0 0              0       0       0       0 
UYUZH281 Yuzhno-Ukrai 0 0 336.59       0       0       0       0 
UDNIST81 Dnistrovska  0 0 324.06 0.42258 2.27069       0       0 
ULADYZ81 Ladyzhynska  0 0 330.06       0       0       0       0 
UVINNY81 Vinnytska    0 0 328.89       0       0       0       0 
UKONOT81 Konotop      0 0 326.66       0       0       0       0 
UPOLTA81 Poltava      0 0 332.06       0       0       0       0 
USUMY181 Sumy pivnich 0 0 329.56       0       0       0       0 
USUMY 81 Sumy         0 0 329.53       0       0       0       0 
USHOS181 Shostka      0 0 329.00       0       0       0       0 
UPIVN181 Pivnichnoukr 0 0 333.78       0       0       0       0 
UKYIV281 Kyivska CHPP 0 0 327.48       0       0       0       0 
UNOVOK81 Novokyivska  0 0 327.66       0       0       0       0 
UKURAK81 Kurakhivska  0 0 346.83       0       0       0       0 
UKREM281 Kremenchutsk 0 2 334.95 1.15645 6.25023 -24.500 -30.956       0 -252.00 -5.0000 -177.08 
UKAMIA82 Kamianska    0 0 331.75       0       0       0       0 
UMELIT81 Melitopolska 0 0              0       0       0       0 
UMOLOC81 Molochanska  0 0              0       0       0       0 
UNIKOP81 Nikopolska   0 0 332.68       0       0       0       0 
UPIVD381 Pivdenna     0 0 330.89       0       0       0       0 
UPERSH81 Pershotravne 0 0 331.67       0       0       0       0 
UDNIPR81 Dniprovska   0 0 332.34       0       0       0       0       0 -120.00 52.5000 -90.000 
UZAPOR81 Zaporizka    0 0 339.68       0       0       0       0 
UPRYDN81 Prydniprovsk 0 0 331.07 23.1290 9.09124       0       0       0 -1.0000 200.000 -200.00 
ULOZOV81 Lozova       0 0 336.02       0       0       0       0 
UTSEN181 Tsentralna   0 0 335.73       0       0       0       0 
UPIVN281 Pivnichna    0 0 326.17       0       0       0       0 
UZAKHI01 Zakhidnoukra 0 0 725.31 3.56737 1121.17       0       0 
UYUZH201 Yuzhno-Ukrai 0 0 746.25 2.83224 890.128       0       0 
UVINNY01 Vinnytska    0 0              0       0       0       0 
UDNIPR01 Dniprovska   0 0 754.05       0       0       0       0 
UZAPOR01 Zaporizka    0 0 736.02 0.61226 192.422       0       0 
UDNIP282 Dnipro-Donba 0 0 336.19       0       0       0       0 
UDNIP283 Dnipro-Donba 0 0              0       0       0       0 
ULUTSK21 Lutsk pivnic 0 0              0       0       0       0 
UKOVEL82 Kovel        0 0 338.12       0       0       0       0 
ULUTSK81 Lutsk pivnic 0 0              0       0       0       0 
UKAKH182 Kakhovska    0 0              0       0       0       0 
USHOS182 Shostka      0 0 329.00       0       0       0       0 
UNIZHY84 Nizhynska    0 0 342.25       0       0       0       0 
UMELIT82 Melitopolska 0 0              0       0       0       0 
UMOLOC82 Molochanska  0 0              0       0       0       0 
UPERSH82 Pershotravne 0 0 331.46       0       0       0       0 
UKHME41  KHNPP7       0 0              0       0       0       0 
UVINNY02 Vinnytska    0 0 764.98 0.99208 311.794       0       0 
UZAPO602 Zaporizka NP 0 0 742.81 0.93541 293.985       0       0 
UKR_VA51 Krasni Okny- 0 0 115.31       0       0       0       0 
UDN_BE81 Dniester HES 0 0 326.31       0       0       0       0 
UUA_VU51 UA-Vulk 110  0 0 108.09       0       0       0       0 
UKO_RY81 Kotovsk-Rybn 0 0 331.47       0       0       0       0 
UKO_RY82 Kotovsk-Rybn 0 0 331.20       0       0       0       0 
UDN_BR51 Dniester HES 0 0 114.25       0       0       0       0 
USH_OK51 Shakhta-Okni 0 0 113.52       0       0       0       0 
UNE_OT51 Nemiya-Otach 0 0 112.89       0       0       0       0 
ULA_NE51 Larha-Nelipo 0 0 114.15       0       0       0       0 
USO_PO51 Soroka-Poroh 0 0 114.30       0       0       0       0 
UMD_AR81 MDGRES-Artsy 0 0 335.86       0       0       0       0 
UMD_NO81 MDGRES-Novoo 0 0 334.45       0       0       0       0 
UMD_US81 MDGRES-Usato 0 0 335.02       0       0       0       0 
UMD_PO81 MDGRES-Podil 0 0 336.59       0       0       0       0 
UMD_KU51 MDGRES-Kuchu 0 0 117.02       0       0       0       0 
UMD_KU52 MDGRES-Kuchu 0 0 117.02       0       0       0       0 
UMD_ST51 MDGRES-Staro 0 0 117.00       0       0       0       0 
UMUKA151 Mukacevo-Sob 0 0              0       0       0       0 
UADZHA83 Adzhalyk     0 0              0       0       0       0 
UZHYTO85 Zhytomyrska  0 0              0       0       0       0 
UTRYKH86 Trykhaty     0 0 334.91       0       0       0       0 
UNERAF51 Nerafa       0 0 117.62       0       0       0       0 
UBORSH51 Borshchiv    0 0              0       0       0       0 
UDOBR123 Dobrotvirska 0 0 231.22       0       0       0       0 
UZAPO681 Zaporizka NP 0 0 335.86       0       0       0       0 
UZAKHI09 Zakhidnoukra 0 0 725.31 0.89184 280.292       0       0 
UZAKHI87 Zakhidnoukra 0 0 326.23       0       0       0       0 
UMEL -81 Mel - Dzhan  0 0              0       0       0       0 
USUMY15A SUMY1        0 0              0       0       0       0 
UDOBR124 Dobrotvirska 0 0              0       0       0       0 
ULVIV 21 Lviv pivdenn 0 0              0       0       0       0 
UZMIIV85 Zmiivska TPP 0 0              0       0       0       0 
USTEPO81 Stepova      0 0 333.16       0       0       0       0 
URIVN201 Rivnenska NP 0 0 742.50 2.80385 881.204       0       0 
ULUTSK22 Lutsk pivnic 0 0              0       0       0       0 
UBURSH22 Burshtynska  0 0 227.25 11.0004 6.56274       0       0 
UBURSH83 Burshtynska  0 0 326.70       0       0       0       0 
UBURSH84 Burshtynska  0 0 326.70       0       0       0       0 
UZAKHI08 Zakhidnoukra 0 0              0       0       0       0 
UZAKHI89 Zakhidnoukra 0 0              0       0       0       0 
UZAKHI04 Zakhidnoukra 0 0              0       0       0       0 
UZAKHI82 Zakhidnoukra 0 0              0       0       0       0 
UZALIU81 Zaliutyne    0 0 329.93       0       0       0       0 
UKONOT85 Konotop      0 0              0       0       0       0 
UYARMO51 Yarmolyntsi  0 0              0       0       0       0 
UBEREZ21 Berezan2     0 0 223.86       0       0       0       0 
UKIRO181 Kirov_1      0 0 331.01       0       0       0       0 
UKIROV81 Kirov_2      0 0 331.01       0       0       0       0 
UDOBR12S              0 0              0       0       0       0 
UDOBR12T              0 0              0       0       0       0 
URIVN283 Rivnenska NP 0 2 345.66 14.8000 8.84390 -220.00 -65.477       0 -220.00 -10.000 -130.00 
URIVN284 Rivnenska NP 0 2 345.66 14.8000 8.84390 -220.00 -65.477       0 -220.00 -10.000 -130.00 
URIVN285 Rivnenska NP 0 2 345.66 14.8000 8.84390 -220.00 -65.477       0 -220.00 -10.000 -130.00 
URIVN203 Rivnenska NP 0 3 763.39 57.7000 34.5000 -1040.0 -240.23       0 -1040.0 -150.00 -450.00 
##ZXX
XBA_MU11 XBA_MU11     0 0 405.60 -101.27 -1.2666       0       0 
XBA_ZA01 XBA_ZA01     0 0 723.38 77.4887 363.639       0       0 
XKI_MU21 XKI_MU21     0 0 227.07 14.3780 1.69210       0       0 
XRO_MU11 XRO_MU11     0 0 407.89 -116.99 -28.934       0       0 
XRZ_CH11 XRZ_CH11     0 0              0       0       0       0 
XTI_MU21 XTI_MU21     0 0 227.45 9.40396 -0.0675       0       0 
XVK_IS11 XVK_IS11     0 0 382.54 -358.01 91.8834       0       0 
XVK_MU11 XVK_MU11     0 0 405.49 -25.000 -5.8744       0       0 
XZA_DO21 XZA_DO21     0 0              0       0       0       0 
##C

----- LINE BLOCK -----
_________1_________2_________3_________4_________5_________6_________7
1234567890123456789012345678901234567890123456789012345678901234567890
Node 1  |Node 2  |O|S|R(Ohm)|X(Ohm)|B(uS)   |I(A)  |Element Name|

##L
UKURAK51 UTSEN151 1 8 19.830 33.560        0   1000 Kurakh-Tsent
UKURAK51 UMEZHO51 1 8 9.2800 22.050 150.0000   1000 Kurakh-Mezho
UKURAK51 UPOKRO51 1 8 3.5100 8.3400        0   1000 Kurakh-Pokro
UKURAK51 UNOVO151 1 0 18.460 36.670        0   1000 Kurakh-Novot
UBILYT51 UPOKRO51 1 0 3.6300 8.2400        0   1000 Bilyts-Pokro
UBILYT51 UPOKRO51 2 0 3.6300 8.2400        0   1000 Bilyts-Pokro
UBILYT51 UROZIZ51 1 8 5.4700 10.840 71.00000   1000 Bilyts-Roziz
UBILYT51 USLOV151 1 0 8.1100 16.070 106.0000   1000 Bilyts-Slovi
UBILYT51 UIVERS51 1 0 4.7000 14.060 100.0000   1000 Bilyts-Ivers
UBILYT51 UIVERS51 2 0 4.7000 14.060 100.0000   1000 Bilyts-Ivers
UTSEN151 UKOSTI51 1 8 4.7700 9.8400        0   1000 Tsentr-Kosti
UTSEN152 UKOSTI51 1 8 5.7400 9.9800        0   1000 Tsentr-Kosti
UKHME483 URIVN381 1 0 3.2880 22.468 233.5850   1490 Khmeln-Rivne
UKHME403 UKYIVS01 1 0 3.8094 72.742 1052.828   2000 Khmelnytska 
UKHME403 UZAKHI01 1 0 3.3624 63.335 946.9234   2000 Khmelnytska 
UMEZHO51 UMEZH151 1 0 1.2600 3.0300 21.00000   1000 Mezhov-Mezho
UMEZHO51 UCHAPL51 1 0 6.3400 9.9300 253.0000   1000 Mezhov-Chapl
UPOKRO51 UMEZHO51 1 0 6.6100 15.510        0   1000 Pokrov-Mezho
UKYIVS8B UNOVOK81 1 0 3.4065 26.949 285.7800   1491 Kyivsk-Novok
UKYIVS8B UPIVN281 1 0 3.1185 24.981 265.3200   1491 Kyivsk-Pivni
UKYIVS8B UPIVN281 2 0 3.2461 38.380 204.1017   1491 Kyivsk-Pivni
UPS 3381 UTRYKH81 1 0 2.6939 18.408 191.3794   1729 Tylihul-Tryk
UVINN181 UBAR  81 1 0 3.2611 22.284 231.6754   1490 Vinnytsk-Bar
UVINN181 ULADYZ81 1 0 2.8973 24.955 267.3196   2170 Vinnyt-Ladyz
UVINN181 UVINNY81 1 0 0.8208 5.6088 58.31100   1868 Vinnyt-Vinny
UTERNO81 UBURSH83 1 0 3.0300 26.098 279.5680   2170 Ternop-Bursh
UKHME581 UKHME483 1 0 4.4738 38.534 412.7780   2169 Khmeln-Khmel
UKHME581 UBAR  81 1 0 4.8816 33.358 346.7970   1490 Khmelnyt-Bar
UKHME581 UTERNO81 1 8 3.6225 31.202 334.2360   2170 Khmeln-Terno
UCHER281 UKAMI181 1 0 4.9560 27.341 279.1880   1670 Cherni-Kamia
UCHER281 UIVANO83 1 0 5.7528 31.995 326.9690   1210 Cherni-Ivano
USHEPE81 UKHME483 1 0 2.3712 16.203 168.4540   1490 Shepet-Khmel
UKYIVS01 UVINNY02 1 0 2.6118 50.832 710.6338   2000 Kyivska - Vi
UDNIP183 UZAPOR81 1 0 4.1031 29.469 308.5512   1490 Dnipro-Zapor
UKRYV181 UHIRNY81 1 0 1.5863 13.663 146.3580   2152 Kryvor-Hirny
UKRYV181 UHIRNY81 2 0 1.5863 13.663 146.3580   2152 Kryvor-Hirny
UZAPO282 UMELIT81 1 8 4.3275 37.274 399.2840   1299 Zapori-Melit
UZAPO283 UMOLOC81 1 8 3.0648 32.691 357.5600   2016 Zapori-Moloc
UKRYV183 UKAKH181 1 8 4.0238 34.658 371.2580   1732 Kryvor-Kakho
UPS 3380 UPS 3381 1 0 0.7034 4.8068 49.97355   1729 Prohr-Tylihu
USTRYI22 UBORYS21 1 0 3.1500 17.640 113.4000   1003 Stryi-Borysl
USTRYI22 UVOLO221 1 0 5.0400 34.692 230.1600   1010 Stryi-Volove
USTRYI22 UVOLO121 1 0 5.0400 34.692 230.1600   1010 Stryi-Volove
ULVIV 22 UL2_1 21 1 0 1.3200 9.0860 60.28000   1151 Lviv pi-L2_1
UMUKAC22 UVOLO221 1 0 3.6600 25.193 167.1400   1010 Mukach-Volov
UMUKAC22 UKHUST21 1 0 7.9380 34.749 213.8400    863 Mukach-Khust
UMUKAC22 UKHUST21 2 0 7.9380 34.749 213.8400    863 Mukach-Khust
UMUKAC22 XKI_MU21 1 0 2.1500 11.300 71.00000   1235 Mukach-Kisva
UMUKAC22 XTI_MU21 1 0 4.3500 22.650 165.0000   1235 Mukach-Tizal
ULUTS121 UKOVEL21 1 8 9.8010 35.235 210.6000    785 Lutsk -Kovel
ULUTS121 ULUTSK21 1 8 1.5150 8.4840 54.54000   1212 Lutsk -Lutsk
UZAKHI8A UOTPLZ81 1 0 1.6860 12.096 126.6200   1490 Zakhid-OtpLZ
UZAKHI8A UBOHOR84 1 0 3.7850 33.495 359.0000   1650 Zakhid-Bohor
UZAKHI8A UOTPRA81 1 0 6.8160 46.576 484.2200   1728 Zakhid-OtpRa
UZAKHI8A UZAKHI87 2 2      0      0        0 999999 Breaker/Swit
UDNIS181 UBAR  81 1 0 3.1940 27.553 295.2002   1733 Dnistrov-Bar
UDNIS181 UDNIST81 1 0 0.8250 7.1060 76.12000   1732 Dnistr-Dnist
UCHOR281 USLAVU81 1 0 1.9500 16.796 179.9200   2167 Chorno-Slavu
URIVN381 UOTPRA81 1 0 4.3680 29.848 310.3100   1728 Rivne-OtpRad
URIVN381 UHRABI81 1 0 0.4275 3.6822 39.44400   1486 Rivne-Hrabiv
UMUKAC11 UBURSH13 1 0 5.9220 63.168 690.9000   2122 Mukach-Bursh
UMUKAC11 XBA_MU11 1 0 0.7000 7.9500 102.5000   2105 Mukach-Szabo
UMUKAC11 XRO_MU11 1 0 2.0000 19.300 189.0000   2464 Mukach-Rosio
UMUKAC11 XVK_MU11 1 0 0.8300 8.7000 42.00000   2464 Mukach-Vel'k
URUDNA83 UKVART81 1 0 3.7171 25.400 264.0704   1863 Rudna-Kvarts
UZMIIV51 UTRIIC51 1 0 5.4000 16.600 118.0000    605 Zmiivs-Triic
UZMIIV51 USTEPO51 1 0 1.7700 12.100 125.8300   1000 Zmiivs-Stepo
UZMIIV51 UBALAK51 1 0 6.5500 12.900 85.50000   1000 Zmiivs-Balak
UZMIIV52 UHRAKO51 1 0 7.2400 17.280 188.9000    510 Zmiivs-Hrako
UZMIIV52 UTRIIC51 1 0 4.2000 12.800 91.00000    605 Zmiivs-Triic
UZMIIV52 UBALAK51 1 0 6.5500 12.900 85.50000   1000 Zmiivs-Balak
UHRAKO51 UESKHA51 1 0 10.260 17.070 111.0000    390 Hrakov-Eskha
UHRAKO51 UVOVCH51 1 0 23.970 42.250 328.2000    390 Hrakov-Vovch
UKHAR151 UZALIU51 1 0 2.3800 5.6800 39.10000    510 Kharki-Zaliu
UKHAR151 UZALIU51 2 0 2.3800 5.6800 39.10000    510 Kharki-Zaliu
UKHAR151 USKHID51 1 0 1.8800 4.1700 33.50000    510 Kharki-Skhid
UZALIU51 UTRIIC51 1 0 17.300 27.050 172.0000    390 Zaliut-Triic
UZALIU51 UKOZAC51 1 0 7.3200 15.720 184.0000    510 Zaliut-Kozac
ULOSIE51 USKHID51 1 0 1.1900 2.6400 21.20000    510 Losiev-Skhid
ULOSIE51 UESKHA51 1 0 3.1200 9.5000 67.60000    605 Losiev-Eskha
ULOSIE84 UOTPLO81 1 0 0.3167 2.7274 29.21624   1537 Losiev-OtpLo
USKHID51 UESKHA51 1 0 4.0000 9.5000 64.00000    510 Skhidn-Eskha
UKONOT51 UTERES51 1 0 5.4500 16.400 180.0000    605 Konoto-Teres
UKONOT51 UROMNY51 1 0 10.300 24.700 170.0000    450 Konoto-Romny
UPOLTA51 UMYRHO51 1 0 8.8400 17.350 115.0000    450 Poltav-Myrho
USHOS151 UTERES51 1 0 0.9500 2.0500 55.20000    450 Shostk-Teres
USHOS151 UTERES51 2 0 0.9500 2.0500 55.20000    450 Shostk-Teres
USHOS151 USHOST51 1 0 1.4000 3.2000 86.00000    510 Shostk-Shost
USHOS151 USERED51 1 0 9.3600 17.430 397.1000    450 Shostk-Sered
ULOZOV51 USTEPO51 1 0 21.300 35.100 189.1000   1000 Lozova-Stepo
ULOZOV51 ULOZO151 1 0 3.9300 14.100 103.0000   1000 Lozova-Lozov
ULOZOV51 UHAVR151 1 0 4.0600 9.4700 64.80000   1000 Lozova-Havry
UKOZAC51 UZALIU51 2 0 8.0000 17.300 138.0000    510 Kozach-Zaliu
UKOZAC51 UVOVCH51 1 0 23.790 34.450 257.3000    390 Kozach-Vovch
UIPZ  51 UTSYHA51 1 8 7.7300 15.200 100.0000   1000 IPZ-Tsyhansk
UHREBI51 UMYRHO51 1 0 14.400 22.400 570.0000    450 Hrebin-Myrho
UHREBI51 UPYRIA51 1 0 4.6400 6.7300 50.00000   1000 Hrebin-Pyria
UBUKYN51 UTSYHA51 1 8 4.6200 9.0900 60.30000   1000 Bukyne-Tsyha
UESKHA51 ULOSIE51 2 0 3.1200 9.5000 67.60000    605 Eskhar-Losie
UESKHA51 UVOVCH51 1 0 16.920 35.950 273.9000    510 Eskhar-Vovch
UMYRHO51 UROMNY51 1 0 7.9000 15.530 103.0000   1000 Myrhor-Romny
UBALAK51 UTSYHA51 1 0 8.8000 17.470 115.0000   1000 Balakl-Tsyha
UKRIUK31 UKREM231 1 0 1.4000 4.4000 125.0000   1027 Kriuki-Kreme
UBARVI51 UYAZYK51 1 0 2.1600 4.3300        0   1000 Barvin-Yazyk
UYAZYK51 UHAVR151 1 0 3.2200 6.3300 41.98000   1000 Yazyko-Havry
UTERES51 UKONOT51 2 0 5.4500 16.400 180.0000    605 Teresh-Konot
ULOZO131 UPRYZO31 1 0 7.1000 17.600 113.0000   1027 Lozova-Pryzo
UVLASI31 UKREM231 1 0 1.0400 2.8300 18.13000    652 Vlasiv-Kreme
UVLASI32 UKREM231 1 8 1.0400 2.8300 18.13000   1027 Vlasiv-Kreme
UKREM331 UVLASI31 1 0 0.4960 1.7220 11.07000    652 Kremen-Vlasi
UKREM332 UVLASI32 1 8 0.4960 1.7220 11.07000   1027 Kremen-Vlasi
USUMY150 USUMY151 1 0 0.7400 1.7000 40.00000    510 Sumy-Sumy pi
UKREME82 UMYRHO83 1 0 5.2512 35.883 373.0540   1490 Kremen-Myrho
UKREME82 UKREM281 1 0 2.6400 18.040 187.5500   1490 Kremen-Kreme
UKREME82 UDNIPR81 1 0 4.5905 31.897 332.4116   1491 Kremen-Dnipr
UDNIP231 UZAPO133 1 0 0.5300 3.5100 26.00000   1295 Dnipro-Zapor
UDNIP231 UZAPO133 2 0 0.5300 3.5100 26.00000   1027 Dnipro-Zapor
UPAVLO83 UBILYT81 1 0 3.9386 33.925 363.4038   2168 Pavloh-Bilyt
UPAVLO83 UPRYDN81 1 0 2.5232 21.310 227.7665   1491 Pavloh-Prydn
UHAZOP31 UPIVD331 1 0 8.5300 23.770 146.0000   1000 Pivden-Gazop
UHAZOP31 UMAR_I31 1 0 3.6300 9.0000 59.00000   1000 Gazopr-Mar  
UZAPO231 UVELY131 1 0 4.2300 15.410 114.0000   1027 Zapori-Velyk
UPRAVO31 UDNIP231 1 0 0.6600 2.6700 148.0000   1027 Pravob-Dnipr
UPRAVO31 UFEROS31 1 0 12.830 33.060 194.0000   1307 Pravob-Feros
UPRAVO31 UVUZLO32 1 0 5.9000 15.400 344.0000   1285 Pravob-Vuzlo
UPRAVO83 UNIKOP81 1 0 3.1330 21.409 222.5707   1490 Pravob-Nikop
UPRYDN31 UKILTS31 1 0 1.3000 3.7400 83.00000   1126 Prydni-Kilts
UPRYDN31 UVUZLO31 1 0 0.4200 2.1500 60.00000   1126 Prydni-Vuzlo
UPRYDN32 UKILTS31 1 0 0.5600 3.4000 96.00000   1027 Prydni-Kilts
UPRYDN32 UPAVLO31 1 0 3.5500 13.000 390.0000    930 Prydni-Pavlo
UKAMIA31 UPROME31 1 0 0.5300 4.5900 52.00000   1274 Kamian-Prome
UKAMIA32 UDNIP131 1 0 1.2200 3.2900 124.0000    688 Kamian-Dnipr
UKILTS31 UVUZLO31 1 0 1.6600 5.3700 33.00000    822 Kiltse-Vuzlo
UKILTS31 UDNIP132 1 0 2.5800 8.3300 101.0000   1027 Kiltse-Dnipr
UDNIP331 UPROME31 1 0 0.2800 1.6700 56.00000   1916 Dnipro-Prome
UPIVNI31 UOLEKS31 1 0 4.9700 19.600 128.0000    918 Pivnic-Oleks
UPIVNI31 URUDNA31 1 0 1.3000 3.5000 96.00000    959 Pivnic-Rudna
UPIVNI31 UVDHMK31 1 0 9.6500 24.800 154.0000   1027 Pivnic-VDHMK
UKREM231 UOLEKS31 1 0 5.5000 21.800 142.0000   1027 Kremen-Oleks
UOLEKS31 UVDHMK31 1 0 20.400 37.700 253.0000   1027 Oleksa-VDHMK
UOLEKS31 UZNAMI31 1 0 4.2000 14.800 100.0000    959 Oleksa-Znami
UKRYVO81 UKRYV181 1 0 1.7595 15.155 162.3432   2151 Kryvor-Kryvo
UKRYVO81 UKIRO181 1 0 0.0600 0.4130 2.740000   1226 Kryvor-Kirov
UKRYVO81 UKIROV81 1 0 0.0600 0.4130 2.740000   1226 Kryvor-Kirov
UKRYVO31 UPERSH31 1 0 7.0400 18.450 107.0000   1027 Kryvor-Persh
UKRYVO31 UPIVD331 1 0 0.5500 2.5000 72.00000   1027 Kryvor-Pivde
UPIVD332 UNIKOP31 1 8 11.870 34.270 227.0000   1027 Pivden-Nikop
UPIVD332 UHIRNY31 1 0 0.2300 1.4100 13.00000   1035 Pivden-Hirny
UFEROS31 UNIKOP31 1 8 1.6000 4.6600 46.00000    689 Ferosp-Nikop
UKRYV131 UKAKH231 1 0 16.800 60.140 360.0000   1027 Kryvor-Kakho
UKRYV131 UHIRNY32 1 0 2.3000 12.100 320.0000   1027 Kryvor-Hirny
UKRYV131 UNAFTO31 1 0 12.480 54.320 364.0000    959 Kryvor-Nafto
UKAKH231 UNAFTO31 1 0 0.9700 3.7300 25.00000   1683 Kakhov-Nafto
UPOBUZ31 UUKRAI31 1 0 22.150 76.100 479.0000   1027 Pobuzk-Ukrai
UPOBUZ31 UPOMIC31 1 0 11.300 28.000 190.0000   1027 Pobuzk-Pomic
UPRYZO31 UPAVLO31 1 0 2.3800 5.7600 76.00000   1027 Pryzov-Pavlo
UMOLOC31 UVELY131 1 0 16.610 50.400 255.0000   1027 Moloch-Velyk
UUKRAI83 URUDNA83 1 0 5.1404 43.984 470.8042   1491 Ukrain-Rudna
UUKRAI83 UYUZH281 1 0 5.5088 47.449 508.2740   1732 Ukrain-Yuzhn
UUKRAI31 UKIRO231 1 0 0.9400 4.9500 127.0000   1113 Ukrain-Kirov
UKIRO231 UZNAMI31 1 0 9.1400 34.660 230.0000   1000 Kirovo-Znami
UKIRO231 UPOMIC31 1 0 19.600 50.740 342.0000   1027 Kirovo-Pomic
UKIRO231 USUHOK31 1 0 15.050 24.780 166.0000   1027 Kirovo-Suhok
UMELIT31 UPARTY31 1 0 8.0700 18.370 486.0000    633 Melito-Party
UVUZLO31 UDNIP132 1 0 1.5800 6.1300 66.00000    930 Vuzlov-Dnipr
UDNIP131 UVUZLO32 1 0 0.9000 2.4000 66.00000   1027 Dnipro-Vuzlo
UKVART81 UYUZH281 1 0 4.5825 39.471 422.8120   2151 Kvarts-Yuzhn
UKVART31 UBOBRY31 1 0 11.100 17.230 116.0000    526 Kvarts-Bobry
UPOMIC31 USUHOK31 1 0 20.730 40.290 270.0000   1027 Pomich-Suhok
UPETRO51 UROZIZ51 1 0 10.200 19.400 131.0000   1000 Petrop-Roziz
UPETRO51 USLOV151 1 0 6.0000 11.400 77.00000   1000 Petrop-Slovi
UPETRO51 UMEZH151 1 0 3.6000 6.9000 46.00000   1000 Petrop-Mezho
USUHOK31 UBOBRY31 1 0 4.3800 8.0100 54.00000    526 Suhokl-Bobry
UMAR_I31 UKRYV131 1 0 4.4700 11.840 73.00000   1000 Mar-KrTPP   
UPRAVD51 UBARVI51 1 0 4.8700 9.7400 63.00000   1000 Pravdy-Barvi
UCHOR283 UCHOR281 1 2      0      0        0 999999 SV-13-330   
UCHOR203 UKYIVS01 1 0 2.2273 36.025 508.7004   2000 Chornobylska
UCHOR284 UKYIVS8B 1 0 6.9632 74.543 388.6818   1491 Chorno-Kyivs
UCHOR284 UCHOR281 1 2      0      0        0 999999 SV-24-330   
UCHOR284 ULISOV8C 1 0 6.4800 44.280 460.3500   1867 Chorno-Lisov
UTRYKH21 UBEREZ21 1 0 4.3120 18.876 116.1600    483 Trykha-Berez
UTRYKH31 UVOZNE31 1 0 18.360 29.850 119.0000    513 Trykha-Vozne
UDOBRL21 UTSEN221 1 0 2.6676 11.677 71.86080    532 Dobros-Tsent
UDOBRL21 UBEREZ21 1 0 4.0180 17.589 108.2400    483 Dobros-Berez
UDOBRL51 UBERE251 1 0 8.6720 20.842        0   1000 Dobros-Berez
UUSATO83 UADZHA81 1 0 1.5840 10.824 112.5300   1728 Usatov-Adzha
UUSATO83 UNOVOO81 1 0 1.3564 11.683 125.1482    577 Usatov-Novoo
UUSATO83 UMD_US81 1 0 2.0265 20.586 225.0130   1050 Usatov-UA-Mo
UUSATO86 UADZHA83 1 0 4.6125 39.729 425.5800   2005 Usatov-Adzha
UUSATO51 UNOVOO51 1 0 3.9000 9.3750 258.0000   1000 Usatov-Novoo
UUSATO51 UNOVOO51 2 0 3.9000 9.3750 258.0000   1000 Usatov-Novoo
UUSATO51 UTSEN251 1 0 1.8700 4.4510        0   1000 Usatov-Tsent
UUSATO51 UTSEN251 2 0 1.8700 4.4510        0   1000 Usatov-Tsent
UUSATO51 UBILIA51 1 0 11.250 17.630 112.0000   1000 Usatov-Bilia
UKANAL51 UNOVOO51 1 0 3.4700 7.4000 49.00000   1000 Kanal-Novood
UKANAL51 UNOVOO51 2 0 16.283 40.026        0   1000 Kanal-Novood
UKANAL51 USTARO51 1 0 6.2700 12.660 77.00000   1000 Kanal-Starok
UKANAL51 UBILIA51 1 0 0.8800 1.6800 12.00000   1000 Kanal-Biliai
USTARO51 UARTSY51 1 0 12.820 26.600 169.0000   1000 Starok-Artsy
USTARO51 UMD_ST51 1 0 7.8408 18.810 129.6900   1000 Starok-UA-Mo
UARTSY51 UBOLHR51 1 0 10.552 35.689        0   1000 Artsyz-Bolhr
UARTSY51 UBOLHR52 1 0 10.560 35.700 247.3000   1000 Artsyz-Bolhr
UKAKH131 UKAKH231 1 0 0.1600 0.6300 26.00000   1016 Kakhov-Kakho
UVOZNE31 UYUZH231 1 0 3.0800 7.2000 190.0000   1027 Voznes-Yuzhn
UTSENT31 UTRYKH31 1 0 7.3520 24.678        0   1027 Tsentr-Trykh
UTSENT31 UKHNPZ31 1 0 11.801 29.510        0   1027 Tsentr-KHNPZ
UMYKOL31 UTRYKH31 1 0 18.498 51.084        0   1027 Mykola-Trykh
UMYKOL31 UTSENT31 1 0 2.0500 6.5790        0   1027 Mykola-Tsent
UMYKOL31 USNIHU31 1 0 8.0120 19.427        0   1027 Mykola-Snihu
UBOLHR51 UBOLHR52 1 0 0.0100 0.0500        0   1000 Bolhra-Bolhr
UBOLHR51 UUA_VU51 1 0 2.3166 4.0788 25.74000    390 Bolhra-UA-Vu
UPODIL51 UBERE251 1 0 31.702 68.746        0   1000 Podils-Berez
UPODIL51 UKRASN51 1 0 7.8000 18.700 129.0000   1000 Podils-Krasn
UPERVO31 UPOBUZ31 1 0 2.8600 9.1000 59.00000   1027 Pervom-Pobuz
UPERVO31 UYUZH231 1 0 10.786 22.187        0   1027 Pervom-Yuzhn
UNOVOT31 UPARTY31 1 0 9.9000 20.300 126.0000    633 Novotr-Party
UNOVOT31 UKAKH131 1 0 18.360 45.837        0   1027 Novotr-Kakho
URUBAN31 UVELY131 1 0 18.200 32.000 197.0000   1027 Rubani-Velyk
UMYKIL31 UKAKH231 1 0 8.6400 23.100 150.0000    726 Mykils-Kakho
UMYKIL31 UKHNPZ31 1 0 9.3890 25.427        0   1027 Mykils-KHNPZ
UTRYFO31 UKRYV131 1 0 3.9000 9.4100 259.0000   1027 Tryfon-Kryvo
UVOZNE51 UBERE251 1 0 12.507 25.010        0    600 Voznes-Berez
UKUCHU51 UBILIA51 1 0 12.730 19.110 194.0000   1000 Kuchur-Bilia
UKUCHU51 UMD_KU51 1 0 3.3759 8.6130 54.45000   1000 Kuchur-UA-Mo
UKUCHU52 UDOBRL51 1 0 30.668 48.899        0    500 Kuchur-Dobro
UKUCHU52 UMD_KU52 1 0 3.2769 7.8903 54.45000   1000 Kuchur-UA-Mo
UIZMAI51 UARTSY51 1 0 24.480 46.613        0    600 Izmail-Artsy
UIZMAI51 UBOLHR51 1 0 13.639 23.274        0   1000 Izmail-Bolhr
UIZMAI51 UBOLHR52 1 0 19.937 34.256        0   1000 Izmail-Bolhr
UBOLHR52 UARTSY51 2 0 10.680 36.040 250.0000   1000 Bolhra-Artsy
UBOLHR52 UUA_VU51 1 0 1.6830 4.2570 27.72000   1000 Bolhra-UA-Vu
UBUDZH51 UBOLHR51 1 0 6.9000 20.300 138.6500   1000 Budzha-Bolhr
UBUDZH51 URENI 51 1 0 5.3000 11.840 142.0000    390 Budzhak-Reni
URENI 51 UBOLHR52 1 0 7.5000 22.500 219.4000   1000 Reni-Bolhrad
UTSEN251 UADZHA51 1 0 1.7460 5.8920 41.00000    630 Tsentr-Adzha
UTSEN251 UADZHA51 2 0 1.7460 5.8920 41.00000    630 Tsentr-Adzha
UBERYS31 UNAFTO31 1 0 1.3900 3.0400 18.00000   1027 Berysl-Nafto
UTASHL81 UYUZH281 1 0 0.2040 2.3200 32.00000   2840 Tashly-Yuzhn
U7GRES51 U7HBC 51 1 0 2.9300 6.8900        0   1000 603_MHRES110
U7CHIS81 U7STRA81 1 0 1.9200 13.120 136.4000   1490 604_KYSYN330
U7CHIS51 U7CIOA51 1 0 31.850 64.860        0   1000 605_KYSYN110
U7DUBA51 U7VASI51 1 0 2.0600 4.9500        0   1000 606_DUBOSS R
U7VASI51 UKR_VA51 1 0 0.0603 0.1536 1.050000   1000 540_KROKN_1 
U7HBC 82 U7GRES81 1 0 1.0080 6.8880 71.61000   1490 609_OTPKBK-1
U7HBC 82 U7CHIS81 1 0 3.6960 25.256 262.5700   1490 609_OTPKBK-1
U7HBC 82 U7HBC 81 1 0 0.6720 4.5920 47.74000   1490 609_OTPKBK-1
U7BILI51 U7STRA51 1 0 26.840 55.880        0   1000 610_BEL_T110
U7BILI51 U7RIBN51 1 0 20.820 37.170        0   1000 610_BEL_T110
U7BILI51 U7OTAC51 1 0 46.110 78.570        0   1000 610_BEL_T110
U7BILI51 USOR1 51 1 0 14.920 30.670        0   1091 610_BEL_T110
U7BILI51 U7UNGE51 1 0 17.980 35.980        0   1091 610_BEL_T110
U7BILI51 U7COST51 1 0 11.820 23.320        0   1000 610_BEL_T110
U7VULC51 U7CHIS51 1 0 17.380 35.310        0   1000 612_VULK-110
U7VULC11 U7GRES11 1 0 3.1800 48.336 578.7600   3730 613_VULK-400
U7VULC11 XVK_IS11 1 0 0.1500 1.4600 0.050000   1832 613_VULK-400
U7HBC 51 U7CHIS51 1 0 16.730 31.120        0   1000 616_KBK-110 
...